<configuration>

<input>
    <net-file value="my_net.net.xml"/>
    <route-files value="od_route_file.odtrips.rou.xml"/>
</input>

<processing>
    <time-to-teleport value="-1"/>
</processing>

<report>
    <xml-validation value="never"/>
    <duration-log.disable value="true"/>
    <no-step-log value="true"/>
</report>

</configuration>
