<additional>

<tazs>
    <taz id="1" edges="-320464097">
    </taz>
    <taz id="2" edges="5668977#0">
    </taz>
    <taz id="3" edges="5672180#5">
    </taz>
    <taz id="4" edges="5672180#5">
    </taz>
</tazs>

</additional>
