<?xml version="1.0" encoding="UTF-8"?>

<!-- generated on 05/15/20 21:53:33 by Eclipse SUMO duarouter Version 1.6.0
<configuration xmlns:xsi="http://www.w3.org/2001/XMLSchema-instance" xsi:noNamespaceSchemaLocation="http://sumo.dlr.de/xsd/duarouterConfiguration.xsd">

    <input>
        <net-file value="mahattan.net.xml"/>
        <route-files value="trips.trips.xml"/>
    </input>

    <output>
        <output-file value="mahattan.rou.xml"/>
        <alternatives-output value="mahattan.rou.alt.xml"/>
    </output>

    <time>
        <begin value="0"/>
        <end value="50.0"/>
    </time>

    <report>
        <no-warnings value="true"/>
        <ignore-errors value="true"/>
        <no-step-log value="true"/>
    </report>

</configuration>
-->

<routes xmlns:xsi="http://www.w3.org/2001/XMLSchema-instance" xsi:noNamespaceSchemaLocation="http://sumo.dlr.de/xsd/routes_file.xsd">
    <vehicle id="2" depart="2.00">
        <route edges="740085319#5 169381959#11 169381959#12 169381959#13 320464097"/>
    </vehicle>
    <vehicle id="4" depart="4.00">
        <route edges="44164413#3 44164413#4 44164413#5 44164413#6 44164413#7 44164413#8 44164413#9 44164413#10 44164413#11 44164413#12 44164413#13 44164413#14 44164413#15 5672180#3 5672180#4 5672180#5"/>
    </vehicle>
    <vehicle id="5" depart="5.00">
        <route edges="5671106#5 421853635#0 5671786#2 5671786#3 5671786#4 5671786#5 5671786#6 -320516790#3 -320516790#2 -320516790#1 -320516790#0 320516791"/>
    </vehicle>
    <vehicle id="6" depart="6.00">
        <route edges="421853640#0 421853640#1 421853622 421853636#0 421853636#1 421853634 421853643 781311947#0 781311947#1 320516787 68668560 -169381959#13 -169381959#12 -169381959#11 -169381959#10 -169381959#9 -169381959#8 -169381959#7 -169381959#6 -169381959#5 -169381959#4 -169381959#3 -169381959#2 -169381959#1 -169381959#0"/>
    </vehicle>
    <vehicle id="7" depart="7.00">
        <route edges="-46111607#11 -46111607#10 -46111607#9 -46111607#8 5668977#0 5668977#1 5668977#2 5668977#3 44164413#14 44164413#15 44164413#16 -781311947#1 -781311947#0 -421853643 421853641#0"/>
    </vehicle>
    <vehicle id="8" depart="8.00">
        <route edges="5671106#3 5671106#4 781311948#6 5671403#3 5671403#4 5671403#5 404253364#0 404253364#1 404253364#2 5670526#2 320516789#3"/>
    </vehicle>
    <vehicle id="9" depart="9.00">
        <route edges="-68668560 68668560 -169381959#13 -169381959#12 -169381959#11 740085319#6 46111607#9"/>
    </vehicle>
    <vehicle id="10" depart="10.00">
        <route edges="-421853643 421853641#0 5672180#0"/>
    </vehicle>
    <vehicle id="13" depart="13.00">
        <route edges="-320516790#3 5670526#1 5670526#2 320516789#3 320516789#4 320516789#5 320516789#6 320516789#7"/>
    </vehicle>
    <vehicle id="14" depart="14.00">
        <route edges="44164413#7 44164413#8 44164413#9 44164413#10 44164413#11 44164413#12 44164413#13 44164413#14 44164413#15 44164413#16 -781311947#1 -781311947#0 781311948#0 781311948#1 781311948#2 781311948#3 199124544 199124543#0 199124543#1"/>
    </vehicle>
    <vehicle id="15" depart="15.00">
        <route edges="320516791 -46111607#4 -46111607#3 -46111607#2 5670526#0 5670526#1 5670526#2 5670526#3 5670526#4 781311948#4 781311948#5 5671106#5"/>
    </vehicle>
    <vehicle id="16" depart="16.00">
        <route edges="404253364#11 404253364#12 740085319#4 740085319#5 169381959#11 169381959#12 169381959#13 -68668560 -320516787 -781311947#1 -781311947#0 -421853643"/>
    </vehicle>
    <vehicle id="17" depart="17.00">
        <route edges="320516789#4 320516789#5 5671403#5 404253364#0 404253364#1 404253364#2 404253364#3 5669008#6"/>
    </vehicle>
    <vehicle id="18" depart="18.00">
        <route edges="169381959#10 169381959#11 169381959#12 169381959#13 -68668560 -320516787 -781311947#1 -781311947#0 -421853643 -5671220#1 -5671220#0"/>
    </vehicle>
    <vehicle id="19" depart="19.00">
        <route edges="44164413#16 -781311947#1 -781311947#0 781311948#0 781311948#1 781311948#2 5669008#3 5669008#4"/>
    </vehicle>
    <vehicle id="20" depart="20.00">
        <route edges="5671403#0 5671403#1 226015229#1 421853632 421853635#0 5671786#2 781311948#5 5671106#5"/>
    </vehicle>
    <vehicle id="21" depart="21.00">
        <route edges="320464097 -46111607#5 -46111607#4 -46111607#3 -46111607#2 5670526#0 5670526#1 5670526#2 320516789#3 5671786#5 5671786#6"/>
    </vehicle>
    <vehicle id="22" depart="22.00">
        <route edges="5671786#4 5671786#5 404253364#2 404253364#3 404253364#4 5670659#2 5670659#3 5670659#4 5670659#5"/>
    </vehicle>
    <vehicle id="24" depart="24.00">
        <route edges="-781311947#1 -781311947#0 781311948#0 781311948#1 781311948#2 781311948#3 781311948#4 781311948#5 781311948#6 5671403#3 5671403#4"/>
    </vehicle>
    <vehicle id="25" depart="25.00">
        <route edges="169381959#4 169381959#5 169381959#6 169381959#7 169381959#8 169381959#9 169381959#10 169381959#11 5668977#1"/>
    </vehicle>
    <vehicle id="26" depart="26.00">
        <route edges="320516789#0 320516789#1 5669008#5 5669008#6 5669008#7 46111607#3 46111607#4 46111607#5 46111607#6 46111607#7"/>
    </vehicle>
    <vehicle id="27" depart="27.00">
        <route edges="169381959#6 169381959#7 169381959#8 169381959#9 169381959#10 169381959#11 5668977#1 5668977#2 5668977#3 44164413#14 44164413#15 44164413#16 320516786 320516788#0 320516788#1"/>
    </vehicle>
    <vehicle id="28" depart="28.00">
        <route edges="169381959#13 -68668560 -320516787 320516786 320516788#0 320516788#1"/>
    </vehicle>
    <vehicle id="30" depart="30.00">
        <route edges="781311947#1 -781311947#1 -781311947#0 -421853643 421853643"/>
    </vehicle>
    <vehicle id="31" depart="31.00">
        <route edges="169381959#13 -68668560 -320516787 -781311947#1 -781311947#0 781311948#0 781311948#1"/>
    </vehicle>
    <vehicle id="32" depart="32.00">
        <route edges="740085319#5 740085319#6 -46111607#8 -46111607#7 -46111607#6 -46111607#5 -46111607#4 -46111607#3 -46111607#2 -46111607#1"/>
    </vehicle>
    <vehicle id="34" depart="34.00">
        <route edges="5671786#7 46111607#1 5670526#0 -320516790#2 -320516790#1 -320516790#0 -320464096 -169381959#13 -169381959#12 5668977#1 5668977#2 5668977#3 5668977#4 5668977#5 5668977#6 5668977#7"/>
    </vehicle>
    <vehicle id="35" depart="35.00">
        <route edges="46111607#4 46111607#5 46111607#6 46111607#7 5668977#0 -169381959#11 -169381959#10 -169381959#9 -169381959#8 -169381959#7 -169381959#6 -169381959#5 -169381959#4 -169381959#3 -169381959#2 -169381959#1 -169381959#0"/>
    </vehicle>
    <vehicle id="36" depart="36.00">
        <route edges="5671106#5 421853635#0 5671786#2 5671786#3 5671786#4 320516789#4 320516789#5 320516789#6 320516789#7"/>
    </vehicle>
    <vehicle id="37" depart="37.00">
        <route edges="-46111607#5 46111607#5 -320464097 -68668560 -320516787 -781311947#1 -781311947#0 -421853643 421853643"/>
    </vehicle>
    <vehicle id="38" depart="38.00">
        <route edges="46111607#8 -46111607#8 5668977#0 5668977#1 5668977#2 5668977#3 44164413#14 44164413#15 44164413#16 -781311947#1 -781311947#0 781311948#0 781311948#1 5670659#5 196802689#0 196802689#1"/>
    </vehicle>
    <vehicle id="39" depart="39.00">
        <route edges="320464097 -320464097 -68668560 -320516787 -781311947#1 -781311947#0 781311948#0 781311948#1 5670659#5 196802689#0 196802689#1"/>
    </vehicle>
    <vehicle id="40" depart="40.00">
        <route edges="320516791 -46111607#4 5670659#0 5670659#1 5670659#2 320516789#1 5669008#5 404253364#4"/>
    </vehicle>
    <vehicle id="43" depart="43.00">
        <route edges="169381959#9 169381959#10 740085319#6 46111607#9 46111607#10"/>
    </vehicle>
    <vehicle id="45" depart="45.00">
        <route edges="781311948#1 781311948#2 5669008#3 5669008#4 5669008#5 5669008#6 -320516790#1 -320516790#0 -320464096 -169381959#13 -169381959#12 -169381959#11 -169381959#10"/>
    </vehicle>
    <vehicle id="46" depart="46.00">
        <route edges="5671106#0 5671106#1 404253364#1 404253364#2 5670526#2 5670526#3 5670526#4 781311948#4 5671786#3 5671786#4"/>
    </vehicle>
    <vehicle id="47" depart="47.00">
        <route edges="5672180#0"/>
    </vehicle>
    <vehicle id="49" depart="49.00">
        <route edges="169381959#2 169381959#3 169381959#4 169381959#5 169381959#6 169381959#7 169381959#8 169381959#9 169381959#10 169381959#11 5668977#1 5668977#2 5668977#3 44164413#14 44164413#15 44164413#16 320516786 320516789#0 320516789#1 320516789#2 320516789#3 5671786#5 404253364#2"/>
    </vehicle>
</routes>
