<?xml version="1.0" encoding="UTF-8"?>

<!-- generated on 05/15/20 21:34:46 by Eclipse SUMO netconvert Version 1.6.0
<configuration xmlns:xsi="http://www.w3.org/2001/XMLSchema-instance" xsi:noNamespaceSchemaLocation="http://sumo.dlr.de/xsd/netconvertConfiguration.xsd">

    <input>
        <osm-files value="mahattan.osm"/>
    </input>

    <output>
        <output-file value="test.net.xml"/>
    </output>

    <projection>
        <proj.utm value="true"/>
    </projection>

    <report>
        <aggregate-warnings value="5"/>
    </report>

</configuration>
-->

<net version="1.6" junctionCornerDetail="5" limitTurnSpeed="5.50" xmlns:xsi="http://www.w3.org/2001/XMLSchema-instance" xsi:noNamespaceSchemaLocation="http://sumo.dlr.de/xsd/net_file.xsd">

    <location netOffset="-585690.70,-4513653.18" convBoundary="0.00,0.00,1953.05,3620.35" origBoundary="-73.994471,40.755913,-73.957678,40.801790" projParameter="+proj=utm +zone=18 +ellps=WGS84 +datum=WGS84 +units=m +no_defs"/>

    <type id="highway.bridleway" priority="1" numLanes="1" speed="2.78" allow="pedestrian" oneway="1" width="2.00"/>
    <type id="highway.bus_guideway" priority="1" numLanes="1" speed="27.78" allow="bus" oneway="1"/>
    <type id="highway.cycleway" priority="1" numLanes="1" speed="8.33" allow="bicycle" oneway="0" width="1.00"/>
    <type id="highway.footway" priority="1" numLanes="1" speed="2.78" allow="pedestrian" oneway="1" width="2.00"/>
    <type id="highway.ford" priority="1" numLanes="1" speed="2.78" allow="army" oneway="0"/>
    <type id="highway.living_street" priority="2" numLanes="1" speed="2.78" disallow="tram rail_urban rail rail_electric rail_fast ship" oneway="0"/>
    <type id="highway.motorway" priority="14" numLanes="2" speed="39.44" allow="private emergency authority army vip passenger hov taxi bus coach delivery truck trailer motorcycle evehicle custom1 custom2" oneway="1"/>
    <type id="highway.motorway_link" priority="9" numLanes="1" speed="22.22" allow="private emergency authority army vip passenger hov taxi bus coach delivery truck trailer motorcycle evehicle custom1 custom2" oneway="1"/>
    <type id="highway.path" priority="1" numLanes="1" speed="2.78" allow="pedestrian bicycle" oneway="1" width="2.00"/>
    <type id="highway.pedestrian" priority="1" numLanes="1" speed="2.78" allow="pedestrian" oneway="1" width="2.00"/>
    <type id="highway.primary" priority="12" numLanes="2" speed="27.78" disallow="tram rail_urban rail rail_electric rail_fast ship" oneway="0"/>
    <type id="highway.primary_link" priority="7" numLanes="1" speed="22.22" disallow="tram rail_urban rail rail_electric rail_fast ship" oneway="0"/>
    <type id="highway.raceway" priority="15" numLanes="2" speed="83.33" allow="vip" oneway="0"/>
    <type id="highway.residential" priority="3" numLanes="1" speed="13.89" disallow="tram rail_urban rail rail_electric rail_fast ship" oneway="0"/>
    <type id="highway.secondary" priority="11" numLanes="1" speed="27.78" disallow="tram rail_urban rail rail_electric rail_fast ship" oneway="0"/>
    <type id="highway.secondary_link" priority="6" numLanes="1" speed="22.22" disallow="tram rail_urban rail rail_electric rail_fast ship" oneway="0"/>
    <type id="highway.service" priority="1" numLanes="1" speed="5.56" allow="pedestrian delivery bicycle" oneway="0"/>
    <type id="highway.stairs" priority="1" numLanes="1" speed="1.39" allow="pedestrian" oneway="1" width="2.00"/>
    <type id="highway.step" priority="1" numLanes="1" speed="1.39" allow="pedestrian" oneway="1" width="2.00"/>
    <type id="highway.steps" priority="1" numLanes="1" speed="1.39" allow="pedestrian" oneway="1" width="2.00"/>
    <type id="highway.tertiary" priority="10" numLanes="1" speed="22.22" disallow="tram rail_urban rail rail_electric rail_fast ship" oneway="0"/>
    <type id="highway.tertiary_link" priority="5" numLanes="1" speed="22.22" disallow="tram rail_urban rail rail_electric rail_fast ship" oneway="0"/>
    <type id="highway.track" priority="1" numLanes="1" speed="5.56" disallow="tram rail_urban rail rail_electric rail_fast ship" oneway="0"/>
    <type id="highway.trunk" priority="13" numLanes="2" speed="27.78" disallow="pedestrian bicycle tram rail_urban rail rail_electric rail_fast ship" oneway="0"/>
    <type id="highway.trunk_link" priority="8" numLanes="1" speed="22.22" disallow="pedestrian bicycle tram rail_urban rail rail_electric rail_fast ship" oneway="0"/>
    <type id="highway.unclassified" priority="4" numLanes="1" speed="13.89" disallow="tram rail_urban rail rail_electric rail_fast ship" oneway="0"/>
    <type id="highway.unsurfaced" priority="1" numLanes="1" speed="8.33" disallow="tram rail_urban rail rail_electric rail_fast ship" oneway="0"/>
    <type id="railway.highspeed" priority="21" numLanes="1" speed="69.44" allow="rail_fast" oneway="1"/>
    <type id="railway.light_rail" priority="19" numLanes="1" speed="27.78" allow="rail_urban" oneway="1"/>
    <type id="railway.preserved" priority="16" numLanes="1" speed="27.78" allow="rail" oneway="1"/>
    <type id="railway.rail" priority="20" numLanes="1" speed="44.44" allow="rail" oneway="1"/>
    <type id="railway.subway" priority="18" numLanes="1" speed="27.78" allow="rail_urban" oneway="1"/>
    <type id="railway.tram" priority="17" numLanes="1" speed="13.89" allow="tram" oneway="1"/>

    <edge id=":1061531454_0" function="internal">
        <lane id=":1061531454_0_0" index="0" disallow="tram rail_urban rail rail_electric rail_fast ship" speed="27.78" length="0.29" shape="382.57,1605.53 382.70,1605.77"/>
        <lane id=":1061531454_0_1" index="1" disallow="tram rail_urban rail rail_electric rail_fast ship" speed="27.78" length="0.29" shape="379.74,1607.02 379.89,1607.30"/>
    </edge>
    <edge id=":1061531500_0" function="internal">
        <lane id=":1061531500_0_0" index="0" disallow="tram rail_urban rail rail_electric rail_fast ship" speed="27.78" length="0.24" shape="257.88,1208.74 257.91,1208.92"/>
        <lane id=":1061531500_0_1" index="1" disallow="tram rail_urban rail rail_electric rail_fast ship" speed="27.78" length="0.24" shape="254.73,1209.29 254.78,1209.58"/>
    </edge>
    <edge id=":1061531525_0" function="internal">
        <lane id=":1061531525_0_0" index="0" disallow="tram rail_urban rail rail_electric rail_fast ship" speed="27.78" length="0.30" shape="423.85,1681.27 423.99,1681.53"/>
        <lane id=":1061531525_0_1" index="1" disallow="tram rail_urban rail rail_electric rail_fast ship" speed="27.78" length="0.30" shape="421.04,1682.81 421.19,1683.07"/>
    </edge>
    <edge id=":1061531550_0" function="internal">
        <lane id=":1061531550_0_0" index="0" disallow="tram rail_urban rail rail_electric rail_fast ship" speed="6.44" length="9.03" shape="544.85,1890.91 542.86,1892.39 541.83,1894.15 541.78,1896.18 542.71,1898.48"/>
    </edge>
    <edge id=":1061531550_1" function="internal">
        <lane id=":1061531550_1_0" index="0" disallow="tram rail_urban rail rail_electric rail_fast ship" speed="13.89" length="14.45" shape="544.85,1890.91 532.14,1897.78"/>
    </edge>
    <edge id=":1061531550_2" function="internal">
        <lane id=":1061531550_2_0" index="0" disallow="tram rail_urban rail rail_electric rail_fast ship" speed="27.78" length="10.21" shape="537.72,1889.62 542.71,1898.48"/>
        <lane id=":1061531550_2_1" index="1" disallow="tram rail_urban rail rail_electric rail_fast ship" speed="27.78" length="10.21" shape="534.91,1891.15 539.94,1900.08"/>
    </edge>
    <edge id=":1061531550_4" function="internal">
        <lane id=":1061531550_4_0" index="0" disallow="tram rail_urban rail rail_electric rail_fast ship" speed="6.22" length="8.17" shape="534.91,1891.15 535.55,1893.05 535.30,1894.79 534.16,1896.36 532.14,1897.78"/>
    </edge>
    <edge id=":1061531566_0" function="internal">
        <lane id=":1061531566_0_0" index="0" disallow="tram rail_urban rail rail_electric rail_fast ship" speed="27.78" length="0.29" shape="294.55,1372.08 294.61,1372.33"/>
        <lane id=":1061531566_0_1" index="1" disallow="tram rail_urban rail rail_electric rail_fast ship" speed="27.78" length="0.29" shape="291.44,1372.82 291.51,1373.12"/>
    </edge>
    <edge id=":1061531603_0" function="internal">
        <lane id=":1061531603_0_0" index="0" disallow="tram rail_urban rail rail_electric rail_fast ship" speed="6.36" length="9.04" shape="675.54,2103.95 673.53,2105.44 672.53,2107.20 672.55,2109.21 673.58,2111.50"/>
    </edge>
    <edge id=":1061531603_1" function="internal">
        <lane id=":1061531603_1_0" index="0" disallow="tram rail_urban rail rail_electric rail_fast ship" speed="27.78" length="14.82" shape="675.54,2103.95 662.53,2111.05"/>
    </edge>
    <edge id=":1061531603_2" function="internal">
        <lane id=":1061531603_2_0" index="0" disallow="tram rail_urban rail rail_electric rail_fast ship" speed="3.65" length="2.34" shape="675.54,2103.95 674.10,2103.82 673.37,2103.31"/>
    </edge>
    <edge id=":1061531603_10" function="internal">
        <lane id=":1061531603_10_0" index="0" disallow="tram rail_urban rail rail_electric rail_fast ship" speed="3.65" length="2.34" shape="673.37,2103.31 673.34,2102.41 674.02,2101.14"/>
    </edge>
    <edge id=":1061531603_3" function="internal">
        <lane id=":1061531603_3_0" index="0" disallow="tram rail_urban rail rail_electric rail_fast ship" speed="6.90" length="9.74" shape="665.63,2098.97 667.34,2100.98 669.31,2102.01 671.53,2102.06 674.02,2101.14"/>
    </edge>
    <edge id=":1061531603_4" function="internal">
        <lane id=":1061531603_4_0" index="0" disallow="tram rail_urban rail rail_electric rail_fast ship" speed="27.78" length="14.84" shape="665.63,2098.97 673.58,2111.50"/>
        <lane id=":1061531603_4_1" index="1" disallow="tram rail_urban rail rail_electric rail_fast ship" speed="27.78" length="14.84" shape="662.93,2100.68 670.88,2113.21"/>
    </edge>
    <edge id=":1061531603_6" function="internal">
        <lane id=":1061531603_6_0" index="0" disallow="tram rail_urban rail rail_electric rail_fast ship" speed="7.21" length="11.84" shape="662.93,2100.68 664.69,2104.15 665.21,2107.04 664.49,2109.34 662.53,2111.05"/>
    </edge>
    <edge id=":1061531603_7" function="internal">
        <lane id=":1061531603_7_0" index="0" disallow="tram rail_urban rail rail_electric rail_fast ship" speed="27.78" length="14.85" shape="660.98,2108.25 674.02,2101.14"/>
    </edge>
    <edge id=":1061531603_8" function="internal">
        <lane id=":1061531603_8_0" index="0" disallow="tram rail_urban rail rail_electric rail_fast ship" speed="7.66" length="4.15" shape="660.98,2108.25 663.47,2107.53 664.99,2107.89"/>
    </edge>
    <edge id=":1061531603_9" function="internal">
        <lane id=":1061531603_9_0" index="0" disallow="tram rail_urban rail rail_electric rail_fast ship" speed="3.65" length="2.34" shape="660.98,2108.25 662.42,2108.37 663.16,2108.88"/>
    </edge>
    <edge id=":1061531603_11" function="internal">
        <lane id=":1061531603_11_0" index="0" disallow="tram rail_urban rail rail_electric rail_fast ship" speed="7.66" length="8.14" shape="664.99,2107.89 665.95,2108.12 668.42,2110.01 670.88,2113.21"/>
    </edge>
    <edge id=":1061531603_12" function="internal">
        <lane id=":1061531603_12_0" index="0" disallow="tram rail_urban rail rail_electric rail_fast ship" speed="3.65" length="2.34" shape="663.16,2108.88 663.19,2109.77 662.53,2111.05"/>
    </edge>
    <edge id=":1061531634_0" function="internal">
        <lane id=":1061531634_0_0" index="0" disallow="tram rail_urban rail rail_electric rail_fast ship" speed="27.78" length="0.27" shape="274.97,1289.62 275.02,1289.84"/>
        <lane id=":1061531634_0_1" index="1" disallow="tram rail_urban rail rail_electric rail_fast ship" speed="27.78" length="0.27" shape="271.84,1290.28 271.91,1290.58"/>
    </edge>
    <edge id=":1061531637_0" function="internal">
        <lane id=":1061531637_0_0" index="0" disallow="tram rail_urban rail rail_electric rail_fast ship" speed="6.47" length="9.03" shape="719.71,2173.62 717.71,2175.09 716.67,2176.85 716.60,2178.88 717.49,2181.20"/>
    </edge>
    <edge id=":1061531637_1" function="internal">
        <lane id=":1061531637_1_0" index="0" disallow="tram rail_urban rail rail_electric rail_fast ship" speed="13.89" length="14.53" shape="719.71,2173.62 706.95,2180.58"/>
    </edge>
    <edge id=":1061531637_2" function="internal">
        <lane id=":1061531637_2_0" index="0" disallow="tram rail_urban rail rail_electric rail_fast ship" speed="27.78" length="11.44" shape="711.58,2171.29 717.49,2181.20"/>
        <lane id=":1061531637_2_1" index="1" disallow="tram rail_urban rail rail_electric rail_fast ship" speed="27.78" length="11.44" shape="708.88,2173.00 714.69,2182.75"/>
    </edge>
    <edge id=":1061531637_4" function="internal">
        <lane id=":1061531637_4_0" index="0" disallow="tram rail_urban rail rail_electric rail_fast ship" speed="6.38" length="9.04" shape="708.88,2173.00 709.90,2175.28 709.93,2177.30 708.94,2179.07 706.95,2180.58"/>
    </edge>
    <edge id=":1061531645_0" function="internal">
        <lane id=":1061531645_0_0" index="0" disallow="tram rail_urban rail rail_electric rail_fast ship" speed="27.78" length="0.30" shape="462.45,1751.52 462.59,1751.78"/>
        <lane id=":1061531645_0_1" index="1" disallow="tram rail_urban rail rail_electric rail_fast ship" speed="27.78" length="0.30" shape="459.64,1753.06 459.79,1753.32"/>
    </edge>
    <edge id=":1061531682_0" function="internal">
        <lane id=":1061531682_0_0" index="0" disallow="tram rail_urban rail rail_electric rail_fast ship" speed="6.57" length="9.16" shape="827.18,2381.84 828.69,2383.89 830.48,2384.98 832.53,2385.11 834.85,2384.28"/>
    </edge>
    <edge id=":1061531682_1" function="internal">
        <lane id=":1061531682_1_0" index="0" disallow="tram rail_urban rail rail_electric rail_fast ship" speed="27.78" length="11.31" shape="827.18,2381.84 832.57,2391.80"/>
        <lane id=":1061531682_1_1" index="1" disallow="tram rail_urban rail rail_electric rail_fast ship" speed="27.78" length="11.31" shape="824.37,2383.38 829.75,2393.31"/>
    </edge>
    <edge id=":1061531682_3" function="internal">
        <lane id=":1061531682_3_0" index="0" disallow="tram rail_urban rail rail_electric rail_fast ship" speed="13.89" length="14.42" shape="821.97,2390.76 834.85,2384.28"/>
    </edge>
    <edge id=":1061531682_4" function="internal">
        <lane id=":1061531682_4_0" index="0" disallow="tram rail_urban rail rail_electric rail_fast ship" speed="6.69" length="9.24" shape="821.97,2390.76 824.38,2390.01 826.47,2390.19 828.27,2391.29 829.75,2393.31"/>
    </edge>
    <edge id=":1061531683_0" function="internal">
        <lane id=":1061531683_0_0" index="0" disallow="tram rail_urban rail rail_electric rail_fast ship" speed="6.39" length="8.47" shape="577.56,1958.76 578.92,1960.42 580.60,1961.23 582.59,1961.18 584.89,1960.29"/>
    </edge>
    <edge id=":1061531683_1" function="internal">
        <lane id=":1061531683_1_0" index="0" disallow="tram rail_urban rail rail_electric rail_fast ship" speed="27.78" length="10.45" shape="577.56,1958.76 582.93,1967.67"/>
        <lane id=":1061531683_1_1" index="1" disallow="tram rail_urban rail rail_electric rail_fast ship" speed="27.78" length="10.45" shape="574.79,1960.36 580.22,1969.36"/>
    </edge>
    <edge id=":1061531683_3" function="internal">
        <lane id=":1061531683_3_0" index="0" disallow="tram rail_urban rail rail_electric rail_fast ship" speed="13.89" length="14.31" shape="572.29,1967.08 584.89,1960.29"/>
    </edge>
    <edge id=":1061531683_4" function="internal">
        <lane id=":1061531683_4_0" index="0" disallow="tram rail_urban rail rail_electric rail_fast ship" speed="6.74" length="9.28" shape="572.29,1967.08 574.61,1966.24 576.70,1966.34 578.57,1967.38 580.22,1969.36"/>
    </edge>
    <edge id=":1061531695_0" function="internal">
        <lane id=":1061531695_0_0" index="0" disallow="tram rail_urban rail rail_electric rail_fast ship" speed="27.78" length="0.25" shape="314.91,1452.20 314.96,1452.38"/>
        <lane id=":1061531695_0_1" index="1" disallow="tram rail_urban rail rail_electric rail_fast ship" speed="27.78" length="0.25" shape="311.81,1452.99 311.90,1453.30"/>
    </edge>
    <edge id=":1061531731_0" function="internal">
        <lane id=":1061531731_0_0" index="0" disallow="tram rail_urban rail rail_electric rail_fast ship" speed="6.50" length="9.03" shape="872.77,2454.84 870.78,2456.31 869.74,2458.07 869.65,2460.10 870.52,2462.42"/>
    </edge>
    <edge id=":1061531731_1" function="internal">
        <lane id=":1061531731_1_0" index="0" disallow="tram rail_urban rail rail_electric rail_fast ship" speed="13.89" length="14.43" shape="872.77,2454.84 860.02,2461.59"/>
    </edge>
    <edge id=":1061531731_2" function="internal">
        <lane id=":1061531731_2_0" index="0" disallow="tram rail_urban rail rail_electric rail_fast ship" speed="27.78" length="11.26" shape="865.17,2452.53 870.52,2462.42"/>
        <lane id=":1061531731_2_1" index="1" disallow="tram rail_urban rail rail_electric rail_fast ship" speed="27.78" length="11.26" shape="862.35,2454.05 867.71,2463.96"/>
    </edge>
    <edge id=":1061531731_4" function="internal">
        <lane id=":1061531731_4_0" index="0" disallow="tram rail_urban rail rail_electric rail_fast ship" speed="6.48" length="9.03" shape="862.35,2454.05 863.20,2456.38 863.10,2458.41 862.03,2460.15 860.02,2461.59"/>
    </edge>
    <edge id=":1061531736_0" function="internal">
        <lane id=":1061531736_0_0" index="0" disallow="tram rail_urban rail rail_electric rail_fast ship" speed="6.53" length="9.08" shape="903.42,2522.74 904.91,2524.75 906.68,2525.81 908.72,2525.91 911.04,2525.05"/>
    </edge>
    <edge id=":1061531736_1" function="internal">
        <lane id=":1061531736_1_0" index="0" disallow="tram rail_urban rail rail_electric rail_fast ship" speed="27.78" length="11.24" shape="903.42,2522.74 908.72,2532.69"/>
        <lane id=":1061531736_1_1" index="1" disallow="tram rail_urban rail rail_electric rail_fast ship" speed="27.78" length="11.24" shape="900.61,2524.27 905.88,2534.17"/>
    </edge>
    <edge id=":1061531736_3" function="internal">
        <lane id=":1061531736_3_0" index="0" disallow="tram rail_urban rail rail_electric rail_fast ship" speed="13.89" length="14.41" shape="898.30,2531.80 911.04,2525.05"/>
    </edge>
    <edge id=":1061531736_4" function="internal">
        <lane id=":1061531736_4_0" index="0" disallow="tram rail_urban rail rail_electric rail_fast ship" speed="6.52" length="9.05" shape="898.30,2531.80 900.65,2530.98 902.70,2531.10 904.44,2532.16 905.88,2534.17"/>
    </edge>
    <edge id=":1061531768_0" function="internal">
        <lane id=":1061531768_0_0" index="0" disallow="tram rail_urban rail rail_electric rail_fast ship" speed="6.50" length="9.03" shape="796.90,2314.73 794.91,2316.20 793.87,2317.96 793.78,2319.99 794.65,2322.31"/>
    </edge>
    <edge id=":1061531768_1" function="internal">
        <lane id=":1061531768_1_0" index="0" disallow="tram rail_urban rail rail_electric rail_fast ship" speed="13.89" length="14.43" shape="796.90,2314.73 784.13,2321.47"/>
    </edge>
    <edge id=":1061531768_2" function="internal">
        <lane id=":1061531768_2_0" index="0" disallow="tram rail_urban rail rail_electric rail_fast ship" speed="27.78" length="11.27" shape="789.29,2312.42 794.65,2322.31"/>
        <lane id=":1061531768_2_1" index="1" disallow="tram rail_urban rail rail_electric rail_fast ship" speed="27.78" length="11.27" shape="786.47,2313.93 791.84,2323.85"/>
    </edge>
    <edge id=":1061531768_4" function="internal">
        <lane id=":1061531768_4_0" index="0" disallow="tram rail_urban rail rail_electric rail_fast ship" speed="6.47" length="9.03" shape="786.47,2313.93 787.32,2316.26 787.22,2318.29 786.15,2320.03 784.13,2321.47"/>
    </edge>
    <edge id=":1061531790_0" function="internal">
        <lane id=":1061531790_0_0" index="0" disallow="tram rail_urban rail rail_electric rail_fast ship" speed="6.49" length="9.04" shape="948.00,2595.92 946.01,2597.40 944.98,2599.16 944.90,2601.20 945.78,2603.51"/>
    </edge>
    <edge id=":1061531790_1" function="internal">
        <lane id=":1061531790_1_0" index="0" disallow="tram rail_urban rail rail_electric rail_fast ship" speed="13.89" length="14.42" shape="948.00,2595.92 935.30,2602.73"/>
    </edge>
    <edge id=":1061531790_2" function="internal">
        <lane id=":1061531790_2_0" index="0" disallow="tram rail_urban rail rail_electric rail_fast ship" speed="27.78" length="11.28" shape="940.46,2593.61 945.78,2603.51"/>
        <lane id=":1061531790_2_1" index="1" disallow="tram rail_urban rail rail_electric rail_fast ship" speed="27.78" length="11.28" shape="937.62,2595.09 942.98,2605.06"/>
    </edge>
    <edge id=":1061531790_4" function="internal">
        <lane id=":1061531790_4_0" index="0" disallow="tram rail_urban rail rail_electric rail_fast ship" speed="6.54" length="9.09" shape="937.62,2595.09 938.46,2597.45 938.35,2599.51 937.30,2601.27 935.30,2602.73"/>
    </edge>
    <edge id=":1061531803_0" function="internal">
        <lane id=":1061531803_0_0" index="0" disallow="tram rail_urban rail rail_electric rail_fast ship" speed="27.78" length="0.10" shape="342.56,1528.95 342.53,1528.88"/>
        <lane id=":1061531803_0_1" index="1" disallow="tram rail_urban rail rail_electric rail_fast ship" speed="27.78" length="0.10" shape="339.56,1530.07 339.59,1530.15"/>
    </edge>
    <edge id=":1061531810_0" function="internal">
        <lane id=":1061531810_0_0" index="0" disallow="tram rail_urban rail rail_electric rail_fast ship" speed="6.57" length="9.05" shape="750.91,2241.15 752.41,2243.14 754.19,2244.20 756.23,2244.32 758.53,2243.51"/>
    </edge>
    <edge id=":1061531810_1" function="internal">
        <lane id=":1061531810_1_0" index="0" disallow="tram rail_urban rail rail_electric rail_fast ship" speed="27.78" length="11.13" shape="750.91,2241.15 756.26,2250.93"/>
        <lane id=":1061531810_1_1" index="1" disallow="tram rail_urban rail rail_electric rail_fast ship" speed="27.78" length="11.13" shape="748.11,2242.71 753.44,2252.45"/>
    </edge>
    <edge id=":1061531810_3" function="internal">
        <lane id=":1061531810_3_0" index="0" disallow="tram rail_urban rail rail_electric rail_fast ship" speed="13.89" length="14.27" shape="745.89,2250.11 758.53,2243.51"/>
    </edge>
    <edge id=":1061531810_4" function="internal">
        <lane id=":1061531810_4_0" index="0" disallow="tram rail_urban rail rail_electric rail_fast ship" speed="6.52" length="8.99" shape="745.89,2250.11 748.21,2249.30 750.24,2249.42 751.98,2250.46 753.44,2252.45"/>
    </edge>
    <edge id=":1061531818_0" function="internal">
        <lane id=":1061531818_0_0" index="0" disallow="tram rail_urban rail rail_electric rail_fast ship" speed="27.78" length="0.30" shape="500.58,1821.24 500.73,1821.51"/>
        <lane id=":1061531818_0_1" index="1" disallow="tram rail_urban rail rail_electric rail_fast ship" speed="27.78" length="0.30" shape="497.77,1822.78 497.92,1823.04"/>
    </edge>
    <edge id=":1061531839_0" function="internal">
        <lane id=":1061531839_0_0" index="0" disallow="tram rail_urban rail rail_electric rail_fast ship" speed="6.35" length="9.04" shape="627.58,2028.23 625.55,2029.70 624.55,2031.45 624.56,2033.47 625.58,2035.75"/>
    </edge>
    <edge id=":1061531839_1" function="internal">
        <lane id=":1061531839_1_0" index="0" disallow="tram rail_urban rail rail_electric rail_fast ship" speed="13.89" length="14.71" shape="627.58,2028.23 614.48,2034.93"/>
    </edge>
    <edge id=":1061531839_2" function="internal">
        <lane id=":1061531839_2_0" index="0" disallow="tram rail_urban rail rail_electric rail_fast ship" speed="27.78" length="11.79" shape="619.31,2025.79 625.58,2035.75"/>
        <lane id=":1061531839_2_1" index="1" disallow="tram rail_urban rail rail_electric rail_fast ship" speed="27.78" length="11.79" shape="616.59,2027.48 622.88,2037.46"/>
    </edge>
    <edge id=":1061531839_4" function="internal">
        <lane id=":1061531839_4_0" index="0" disallow="tram rail_urban rail rail_electric rail_fast ship" speed="6.30" length="9.04" shape="616.59,2027.48 617.61,2029.78 617.60,2031.79 616.55,2033.50 614.48,2034.93"/>
    </edge>
    <edge id=":1061531847_0" function="internal">
        <lane id=":1061531847_0_0" index="0" disallow="tram rail_urban rail rail_electric rail_fast ship" speed="27.78" length="0.26" shape="981.21,2667.46 981.30,2667.62"/>
        <lane id=":1061531847_0_1" index="1" disallow="tram rail_urban rail rail_electric rail_fast ship" speed="27.78" length="0.26" shape="978.41,2669.01 978.57,2669.30"/>
    </edge>
    <edge id=":3718670415_0" function="internal">
        <lane id=":3718670415_0_0" index="0" allow="bicycle" speed="3.54" length="2.65" shape="1306.07,2406.19 1305.60,2405.45 1305.11,2405.00 1304.59,2404.85 1304.05,2404.99"/>
    </edge>
    <edge id=":3718670415_1" function="internal">
        <lane id=":3718670415_1_0" index="0" allow="bicycle" speed="8.33" length="6.21" width="1.00" shape="1306.07,2406.19 1303.17,2400.70"/>
    </edge>
    <edge id=":3718670415_2" function="internal">
        <lane id=":3718670415_2_0" index="0" disallow="tram rail_urban rail rail_electric rail_fast ship" speed="13.89" length="3.24" shape="1306.41,2402.49 1303.55,2404.01"/>
    </edge>
    <edge id=":3718670415_3" function="internal">
        <lane id=":3718670415_3_0" index="0" allow="bicycle" speed="4.25" length="3.24" width="1.00" shape="1305.89,2401.53 1305.06,2401.83 1304.33,2401.79 1303.70,2401.42 1303.17,2400.70"/>
    </edge>
    <edge id=":3718670416_0" function="internal">
        <lane id=":3718670416_0_0" index="0" allow="bicycle" speed="8.33" length="6.21" width="1.00" shape="1268.58,2336.90 1265.60,2331.45"/>
    </edge>
    <edge id=":3718670416_1" function="internal">
        <lane id=":3718670416_1_0" index="0" allow="bicycle" speed="4.78" length="5.13" shape="1268.58,2336.90 1267.79,2335.23 1267.49,2333.90 1267.66,2332.91 1268.30,2332.25"/>
    </edge>
    <edge id=":3718670416_2" function="internal">
        <lane id=":3718670416_2_0" index="0" allow="bicycle" speed="3.79" length="2.38" width="1.00" shape="1266.12,2333.44 1266.47,2333.06 1266.37,2332.60 1266.00,2332.07 1265.60,2331.45"/>
    </edge>
    <edge id=":3718670416_3" function="internal">
        <lane id=":3718670416_3_0" index="0" disallow="tram rail_urban rail rail_electric rail_fast ship" speed="13.89" length="2.51" shape="1266.63,2334.42 1268.83,2333.22"/>
    </edge>
    <edge id=":3718670418_0" function="internal">
        <lane id=":3718670418_0_0" index="0" allow="bicycle" speed="8.33" length="6.21" width="1.00" shape="1192.65,2196.37 1189.73,2190.89"/>
    </edge>
    <edge id=":3718670418_1" function="internal">
        <lane id=":3718670418_1_0" index="0" allow="bicycle" speed="4.81" length="5.13" shape="1192.65,2196.37 1191.91,2194.68 1191.63,2193.34 1191.81,2192.35 1192.45,2191.71"/>
    </edge>
    <edge id=":3718670418_2" function="internal">
        <lane id=":3718670418_2_0" index="0" allow="bicycle" speed="3.86" length="2.53" width="1.00" shape="1189.81,2193.12 1190.24,2192.69 1190.28,2192.16 1190.07,2191.54 1189.73,2190.89"/>
    </edge>
    <edge id=":3718670418_3" function="internal">
        <lane id=":3718670418_3_0" index="0" disallow="tram rail_urban rail rail_electric rail_fast ship" speed="13.89" length="3.00" shape="1190.32,2194.09 1192.97,2192.68"/>
    </edge>
    <edge id=":3718670419_0" function="internal">
        <lane id=":3718670419_0_0" index="0" allow="bicycle" speed="3.34" length="2.36" shape="1154.37,2125.93 1154.09,2125.24 1153.89,2124.61 1153.61,2124.25 1153.11,2124.33"/>
    </edge>
    <edge id=":3718670419_1" function="internal">
        <lane id=":3718670419_1_0" index="0" allow="bicycle" speed="8.33" length="6.21" width="1.00" shape="1154.37,2125.93 1151.42,2120.46"/>
    </edge>
    <edge id=":3718670419_2" function="internal">
        <lane id=":3718670419_2_0" index="0" disallow="tram rail_urban rail rail_electric rail_fast ship" speed="13.89" length="2.37" shape="1154.65,2122.24 1152.57,2123.37"/>
    </edge>
    <edge id=":3718670419_3" function="internal">
        <lane id=":3718670419_3_0" index="0" allow="bicycle" speed="4.23" length="3.22" width="1.00" shape="1154.12,2121.27 1153.30,2121.58 1152.57,2121.55 1151.94,2121.17 1151.42,2120.46"/>
    </edge>
    <edge id=":3718670420_0" function="internal">
        <lane id=":3718670420_0_0" index="0" allow="bicycle" speed="8.33" length="6.22" width="1.00" shape="1116.95,2055.38 1114.09,2049.85"/>
    </edge>
    <edge id=":3718670420_1" function="internal">
        <lane id=":3718670420_1_0" index="0" allow="bicycle" speed="4.85" length="5.16" shape="1116.95,2055.38 1116.24,2053.66 1115.97,2052.31 1116.16,2051.31 1116.80,2050.67"/>
    </edge>
    <edge id=":3718670420_2" function="internal">
        <lane id=":3718670420_2_0" index="0" allow="bicycle" speed="3.79" length="2.36" width="1.00" shape="1114.73,2051.78 1115.07,2051.40 1114.91,2050.97 1114.51,2050.46 1114.09,2049.85"/>
    </edge>
    <edge id=":3718670420_3" function="internal">
        <lane id=":3718670420_3_0" index="0" disallow="tram rail_urban rail rail_electric rail_fast ship" speed="13.89" length="2.33" shape="1115.26,2052.74 1117.32,2051.64"/>
    </edge>
    <edge id=":3718670421_0" function="internal">
        <lane id=":3718670421_0_0" index="0" allow="bicycle" speed="3.32" length="2.42" shape="1078.96,1984.49 1078.66,1983.81 1078.37,1983.22 1078.01,1982.90 1077.49,1983.01"/>
    </edge>
    <edge id=":3718670421_1" function="internal">
        <lane id=":3718670421_1_0" index="0" allow="bicycle" speed="8.33" length="6.23" width="1.00" shape="1078.96,1984.49 1076.04,1978.99"/>
    </edge>
    <edge id=":3718670421_2" function="internal">